dynawo/sources/Modeler/DataInterface/PowSyblIIDM/test/resources/battery_curve2.xiidm
<?xml version="1.0" encoding="UTF-8"?>
<iidm:network xmlns:iidm="http://www.powsybl.org/schema/iidm/1_4" id="test" caseDate="2022-01-01T00:00:00.000+01:00" forecastDistance="0" sourceFormat="test">
    <iidm:substation id="S1" country="FR" tso="TSO">
        <iidm:voltageLevel id="VL1" nominalV="382.0" lowVoltageLimit="340.0" highVoltageLimit="420.0" topologyKind="BUS_BREAKER">
            <iidm:busBreakerTopology>
                <iidm:bus id="VL1_BUS1"/>
            </iidm:busBreakerTopology>
            <iidm:battery id="BAT1" minP="3.0" maxP="50.0" p0="5.0" q0="5.0"
                bus="VL1_BUS1" connectableBus="VL1_BUS1">
                <iidm:reactiveCapabilityCurve>
                    <iidm:point p="-30.0" minQ="15.0" maxQ="25.0"/>
                    <iidm:point p="-20.0" minQ="10.0" maxQ="20.0"/>
                </iidm:reactiveCapabilityCurve>
            </iidm:battery>
        </iidm:voltageLevel>
    </iidm:substation>
</iidm:network>
